[root]
type=Root
children=system
eventq_index=0
full_system=false
sim_quantum=0
time_sync_enable=false
time_sync_period=100000000000
time_sync_spin_threshold=100000000

[system]
type=System
children=clk_domain cpu cpu_clk_domain cpu_voltage_domain dvfs_handler l2 mem_ctrls membus redirect_paths0 redirect_paths1 redirect_paths2 switch_cpus tol2bus voltage_domain
byte_order=little
cache_line_size=128
eventq_index=0
exit_on_work_items=false
init_param=0
m5ops_base=0
mem_mode=atomic
mem_ranges=0:17179869184
memories=system.mem_ctrls.dram
mmap_using_noreserve=false
multi_thread=false
num_work_ids=16
readfile=
redirect_paths=system.redirect_paths0 system.redirect_paths1 system.redirect_paths2
shared_backstore=
symbolfile=
thermal_components=
thermal_model=Null
work_begin_ckpt_count=0
work_begin_cpu_id_exit=-1
work_begin_exit_count=0
work_cpus_ckpt_count=0
work_end_ckpt_count=0
work_end_exit_count=0
work_item_id=-1
workload=Null
system_port=system.membus.cpu_side_ports[0]

[system.clk_domain]
type=SrcClockDomain
clock=1000
domain_id=-1
eventq_index=0
init_perf_level=0
voltage_domain=system.voltage_domain

[system.cpu]
type=AtomicSimpleCPU
children=dcache dtb dtb_walker_cache icache interrupts isa itb itb_walker_cache power_state tracer workload
branchPred=Null
checker=Null
clk_domain=system.cpu_clk_domain
cpu_id=0
do_checkpoint_insts=true
do_statistics_insts=true
dtb=system.cpu.dtb
eventq_index=0
function_trace=false
function_trace_start=0
interrupts=system.cpu.interrupts
isa=system.cpu.isa
itb=system.cpu.itb
max_insts_all_threads=0
max_insts_any_thread=0
numThreads=1
power_gating_on_idle=false
power_model=
power_state=system.cpu.power_state
progress_interval=0
pwr_gating_latency=300
simpoint_start_insts=1000000 11000000
simulate_data_stalls=false
simulate_inst_stalls=false
socket_id=0
switched_out=false
syscallRetryLatency=10000
system=system
tracer=system.cpu.tracer
wait_for_remote_gdb=false
width=1
workload=system.cpu.workload
dcache_port=system.cpu.dcache.cpu_side
icache_port=system.cpu.icache.cpu_side

[system.cpu.dcache]
type=Cache
children=power_state replacement_policy tags
addr_ranges=0:18446744073709551615
assoc=1
clk_domain=system.cpu_clk_domain
clusivity=mostly_incl
compressor=Null
data_latency=2
demand_mshr_reserve=1
eventq_index=0
is_read_only=false
max_miss_count=0
mshrs=6
power_model=
power_state=system.cpu.dcache.power_state
prefetch_on_access=false
prefetcher=Null
replacement_policy=system.cpu.dcache.replacement_policy
response_latency=2
sequential_access=false
size=16384
system=system
tag_latency=2
tags=system.cpu.dcache.tags
tgts_per_mshr=8
warmup_percentage=0
write_allocator=Null
write_buffers=16
writeback_clean=true
cpu_side=system.cpu.dcache_port
mem_side=system.tol2bus.cpu_side_ports[1]

[system.cpu.dcache.power_state]
type=PowerState
clk_gate_bins=20
clk_gate_max=1000000000000
clk_gate_min=1000
default_state=UNDEFINED
eventq_index=0
leaders=
possible_states=

[system.cpu.dcache.replacement_policy]
type=LRURP
eventq_index=0

[system.cpu.dcache.tags]
type=BaseSetAssoc
children=indexing_policy power_state
assoc=1
block_size=128
clk_domain=system.cpu_clk_domain
entry_size=128
eventq_index=0
indexing_policy=system.cpu.dcache.tags.indexing_policy
power_model=
power_state=system.cpu.dcache.tags.power_state
replacement_policy=system.cpu.dcache.replacement_policy
sequential_access=false
size=16384
system=system
tag_latency=2
warmup_percentage=0

[system.cpu.dcache.tags.indexing_policy]
type=SetAssociative
assoc=1
entry_size=128
eventq_index=0
size=16384

[system.cpu.dcache.tags.power_state]
type=PowerState
clk_gate_bins=20
clk_gate_max=1000000000000
clk_gate_min=1000
default_state=UNDEFINED
eventq_index=0
leaders=
possible_states=

[system.cpu.dtb]
type=ArmTLB
children=stage2_mmu walker
eventq_index=0
is_stage2=false
size=64
sys=system
walker=system.cpu.dtb.walker

[system.cpu.dtb.stage2_mmu]
type=ArmStage2MMU
children=stage2_tlb
eventq_index=0
stage2_tlb=system.cpu.dtb.stage2_mmu.stage2_tlb
sys=system
tlb=system.cpu.dtb

[system.cpu.dtb.stage2_mmu.stage2_tlb]
type=ArmTLB
children=walker
eventq_index=0
is_stage2=true
size=32
sys=system
walker=system.cpu.dtb.stage2_mmu.stage2_tlb.walker

[system.cpu.dtb.stage2_mmu.stage2_tlb.walker]
type=ArmTableWalker
children=power_state
clk_domain=system.cpu_clk_domain
eventq_index=0
is_stage2=true
num_squash_per_cycle=2
power_model=
power_state=system.cpu.dtb.stage2_mmu.stage2_tlb.walker.power_state
sys=system

[system.cpu.dtb.stage2_mmu.stage2_tlb.walker.power_state]
type=PowerState
clk_gate_bins=20
clk_gate_max=1000000000000
clk_gate_min=1000
default_state=UNDEFINED
eventq_index=0
leaders=
possible_states=

[system.cpu.dtb.walker]
type=ArmTableWalker
children=power_state
clk_domain=system.cpu_clk_domain
eventq_index=0
is_stage2=false
num_squash_per_cycle=2
power_model=
power_state=system.cpu.dtb.walker.power_state
sys=system
port=system.cpu.dtb_walker_cache.cpu_side

[system.cpu.dtb.walker.power_state]
type=PowerState
clk_gate_bins=20
clk_gate_max=1000000000000
clk_gate_min=1000
default_state=UNDEFINED
eventq_index=0
leaders=
possible_states=

[system.cpu.dtb_walker_cache]
type=Cache
children=power_state replacement_policy tags
addr_ranges=0:18446744073709551615
assoc=8
clk_domain=system.cpu_clk_domain
clusivity=mostly_incl
compressor=Null
data_latency=4
demand_mshr_reserve=1
eventq_index=0
is_read_only=true
max_miss_count=0
mshrs=6
power_model=
power_state=system.cpu.dtb_walker_cache.power_state
prefetch_on_access=false
prefetcher=Null
replacement_policy=system.cpu.dtb_walker_cache.replacement_policy
response_latency=4
sequential_access=false
size=1024
system=system
tag_latency=4
tags=system.cpu.dtb_walker_cache.tags
tgts_per_mshr=8
warmup_percentage=0
write_allocator=Null
write_buffers=16
writeback_clean=true
cpu_side=system.cpu.dtb.walker.port
mem_side=system.tol2bus.cpu_side_ports[3]

[system.cpu.dtb_walker_cache.power_state]
type=PowerState
clk_gate_bins=20
clk_gate_max=1000000000000
clk_gate_min=1000
default_state=UNDEFINED
eventq_index=0
leaders=
possible_states=

[system.cpu.dtb_walker_cache.replacement_policy]
type=LRURP
eventq_index=0

[system.cpu.dtb_walker_cache.tags]
type=BaseSetAssoc
children=indexing_policy power_state
assoc=8
block_size=128
clk_domain=system.cpu_clk_domain
entry_size=128
eventq_index=0
indexing_policy=system.cpu.dtb_walker_cache.tags.indexing_policy
power_model=
power_state=system.cpu.dtb_walker_cache.tags.power_state
replacement_policy=system.cpu.dtb_walker_cache.replacement_policy
sequential_access=false
size=1024
system=system
tag_latency=4
warmup_percentage=0

[system.cpu.dtb_walker_cache.tags.indexing_policy]
type=SetAssociative
assoc=8
entry_size=128
eventq_index=0
size=1024

[system.cpu.dtb_walker_cache.tags.power_state]
type=PowerState
clk_gate_bins=20
clk_gate_max=1000000000000
clk_gate_min=1000
default_state=UNDEFINED
eventq_index=0
leaders=
possible_states=

[system.cpu.icache]
type=Cache
children=power_state replacement_policy tags
addr_ranges=0:18446744073709551615
assoc=1
clk_domain=system.cpu_clk_domain
clusivity=mostly_incl
compressor=Null
data_latency=1
demand_mshr_reserve=1
eventq_index=0
is_read_only=true
max_miss_count=0
mshrs=2
power_model=
power_state=system.cpu.icache.power_state
prefetch_on_access=false
prefetcher=Null
replacement_policy=system.cpu.icache.replacement_policy
response_latency=1
sequential_access=false
size=32768
system=system
tag_latency=1
tags=system.cpu.icache.tags
tgts_per_mshr=8
warmup_percentage=0
write_allocator=Null
write_buffers=8
writeback_clean=true
cpu_side=system.cpu.icache_port
mem_side=system.tol2bus.cpu_side_ports[0]

[system.cpu.icache.power_state]
type=PowerState
clk_gate_bins=20
clk_gate_max=1000000000000
clk_gate_min=1000
default_state=UNDEFINED
eventq_index=0
leaders=
possible_states=

[system.cpu.icache.replacement_policy]
type=LRURP
eventq_index=0

[system.cpu.icache.tags]
type=BaseSetAssoc
children=indexing_policy power_state
assoc=1
block_size=128
clk_domain=system.cpu_clk_domain
entry_size=128
eventq_index=0
indexing_policy=system.cpu.icache.tags.indexing_policy
power_model=
power_state=system.cpu.icache.tags.power_state
replacement_policy=system.cpu.icache.replacement_policy
sequential_access=false
size=32768
system=system
tag_latency=1
warmup_percentage=0

[system.cpu.icache.tags.indexing_policy]
type=SetAssociative
assoc=1
entry_size=128
eventq_index=0
size=32768

[system.cpu.icache.tags.power_state]
type=PowerState
clk_gate_bins=20
clk_gate_max=1000000000000
clk_gate_min=1000
default_state=UNDEFINED
eventq_index=0
leaders=
possible_states=

[system.cpu.interrupts]
type=ArmInterrupts
eventq_index=0

[system.cpu.isa]
type=ArmISA
decoderFlavor=Generic
eventq_index=0
fpsid=1090793632
id_aa64afr0_el1=0
id_aa64afr1_el1=0
id_aa64dfr0_el1=15790086
id_aa64dfr1_el1=0
id_aa64isar0_el1=0
id_aa64isar1_el1=16846864
id_aa64mmfr0_el1=15728642
id_aa64mmfr1_el1=1052672
id_aa64mmfr2_el1=0
id_isar0=34607377
id_isar1=34677009
id_isar2=555950401
id_isar3=17899825
id_isar4=268501314
id_isar5=268435456
id_mmfr0=270536963
id_mmfr1=0
id_mmfr2=19070976
id_mmfr3=34611729
impdef_nop=false
midr=0
pmu=Null
sve_vl_se=1
system=system

[system.cpu.itb]
type=ArmTLB
children=stage2_mmu walker
eventq_index=0
is_stage2=false
size=64
sys=system
walker=system.cpu.itb.walker

[system.cpu.itb.stage2_mmu]
type=ArmStage2MMU
children=stage2_tlb
eventq_index=0
stage2_tlb=system.cpu.itb.stage2_mmu.stage2_tlb
sys=system
tlb=system.cpu.itb

[system.cpu.itb.stage2_mmu.stage2_tlb]
type=ArmTLB
children=walker
eventq_index=0
is_stage2=true
size=32
sys=system
walker=system.cpu.itb.stage2_mmu.stage2_tlb.walker

[system.cpu.itb.stage2_mmu.stage2_tlb.walker]
type=ArmTableWalker
children=power_state
clk_domain=system.cpu_clk_domain
eventq_index=0
is_stage2=true
num_squash_per_cycle=2
power_model=
power_state=system.cpu.itb.stage2_mmu.stage2_tlb.walker.power_state
sys=system

[system.cpu.itb.stage2_mmu.stage2_tlb.walker.power_state]
type=PowerState
clk_gate_bins=20
clk_gate_max=1000000000000
clk_gate_min=1000
default_state=UNDEFINED
eventq_index=0
leaders=
possible_states=

[system.cpu.itb.walker]
type=ArmTableWalker
children=power_state
clk_domain=system.cpu_clk_domain
eventq_index=0
is_stage2=false
num_squash_per_cycle=2
power_model=
power_state=system.cpu.itb.walker.power_state
sys=system
port=system.cpu.itb_walker_cache.cpu_side

[system.cpu.itb.walker.power_state]
type=PowerState
clk_gate_bins=20
clk_gate_max=1000000000000
clk_gate_min=1000
default_state=UNDEFINED
eventq_index=0
leaders=
possible_states=

[system.cpu.itb_walker_cache]
type=Cache
children=power_state replacement_policy tags
addr_ranges=0:18446744073709551615
assoc=8
clk_domain=system.cpu_clk_domain
clusivity=mostly_incl
compressor=Null
data_latency=4
demand_mshr_reserve=1
eventq_index=0
is_read_only=true
max_miss_count=0
mshrs=6
power_model=
power_state=system.cpu.itb_walker_cache.power_state
prefetch_on_access=false
prefetcher=Null
replacement_policy=system.cpu.itb_walker_cache.replacement_policy
response_latency=4
sequential_access=false
size=1024
system=system
tag_latency=4
tags=system.cpu.itb_walker_cache.tags
tgts_per_mshr=8
warmup_percentage=0
write_allocator=Null
write_buffers=16
writeback_clean=true
cpu_side=system.cpu.itb.walker.port
mem_side=system.tol2bus.cpu_side_ports[2]

[system.cpu.itb_walker_cache.power_state]
type=PowerState
clk_gate_bins=20
clk_gate_max=1000000000000
clk_gate_min=1000
default_state=UNDEFINED
eventq_index=0
leaders=
possible_states=

[system.cpu.itb_walker_cache.replacement_policy]
type=LRURP
eventq_index=0

[system.cpu.itb_walker_cache.tags]
type=BaseSetAssoc
children=indexing_policy power_state
assoc=8
block_size=128
clk_domain=system.cpu_clk_domain
entry_size=128
eventq_index=0
indexing_policy=system.cpu.itb_walker_cache.tags.indexing_policy
power_model=
power_state=system.cpu.itb_walker_cache.tags.power_state
replacement_policy=system.cpu.itb_walker_cache.replacement_policy
sequential_access=false
size=1024
system=system
tag_latency=4
warmup_percentage=0

[system.cpu.itb_walker_cache.tags.indexing_policy]
type=SetAssociative
assoc=8
entry_size=128
eventq_index=0
size=1024

[system.cpu.itb_walker_cache.tags.power_state]
type=PowerState
clk_gate_bins=20
clk_gate_max=1000000000000
clk_gate_min=1000
default_state=UNDEFINED
eventq_index=0
leaders=
possible_states=

[system.cpu.power_state]
type=PowerState
clk_gate_bins=20
clk_gate_max=1000000000000
clk_gate_min=1000
default_state=UNDEFINED
eventq_index=0
leaders=
possible_states=ON CLK_GATED OFF

[system.cpu.tracer]
type=ExeTracer
eventq_index=0

[system.cpu.workload]
type=Process
cmd=/home/data/ChenRuiyang/graph500-graph500-2.1.4/seq-csr/seq-csr -s 13 -e 12
cwd=/home/data/ChenRuiyang/gem5
drivers=
egid=100
env=
errout=cerr
euid=100
eventq_index=0
executable=/home/data/ChenRuiyang/graph500-graph500-2.1.4/seq-csr/seq-csr
gid=100
input=cin
kvmInSE=false
maxStackSize=67108864
output=cout
pgid=100
pid=100
ppid=0
release=5.1.0
simpoint=0
system=system
uid=100
useArchPT=false

[system.cpu_clk_domain]
type=SrcClockDomain
clock=400
domain_id=-1
eventq_index=0
init_perf_level=0
voltage_domain=system.cpu_voltage_domain

[system.cpu_voltage_domain]
type=VoltageDomain
eventq_index=0
voltage=1.0

[system.dvfs_handler]
type=DVFSHandler
domains=
enable=false
eventq_index=0
sys_clk_domain=system.clk_domain
transition_latency=100000000

[system.l2]
type=Cache
children=power_state prefetcher replacement_policy tags
addr_ranges=0:18446744073709551615
assoc=1
clk_domain=system.cpu_clk_domain
clusivity=mostly_excl
compressor=Null
data_latency=12
demand_mshr_reserve=1
eventq_index=0
is_read_only=false
max_miss_count=0
mshrs=16
power_model=
power_state=system.l2.power_state
prefetch_on_access=true
prefetcher=system.l2.prefetcher
replacement_policy=system.l2.replacement_policy
response_latency=12
sequential_access=false
size=524288
system=system
tag_latency=12
tags=system.l2.tags
tgts_per_mshr=8
warmup_percentage=0
write_allocator=Null
write_buffers=8
writeback_clean=false
cpu_side=system.tol2bus.mem_side_ports[0]
mem_side=system.membus.cpu_side_ports[1]

[system.l2.power_state]
type=PowerState
clk_gate_bins=20
clk_gate_max=1000000000000
clk_gate_min=1000
default_state=UNDEFINED
eventq_index=0
leaders=
possible_states=

[system.l2.prefetcher]
type=StridePrefetcher
children=power_state table_indexing_policy table_replacement_policy
block_size=128
cache_snoop=false
clk_domain=system.cpu_clk_domain
confidence_counter_bits=3
confidence_threshold=50
degree=4
eventq_index=0
initial_confidence=4
latency=1
max_prefetch_requests_with_pending_translation=32
on_data=true
on_inst=false
on_miss=false
on_read=true
on_write=true
power_model=
power_state=system.l2.prefetcher.power_state
prefetch_on_access=true
queue_filter=true
queue_size=32
queue_squash=true
sys=system
table_assoc=4
table_entries=64
table_indexing_policy=system.l2.prefetcher.table_indexing_policy
table_replacement_policy=system.l2.prefetcher.table_replacement_policy
tag_prefetch=true
throttle_control_percentage=0
use_requestor_id=true
use_virtual_addresses=false

[system.l2.prefetcher.power_state]
type=PowerState
clk_gate_bins=20
clk_gate_max=1000000000000
clk_gate_min=1000
default_state=UNDEFINED
eventq_index=0
leaders=
possible_states=

[system.l2.prefetcher.table_indexing_policy]
type=StridePrefetcherHashedSetAssociative
assoc=4
entry_size=1
eventq_index=0
size=64

[system.l2.prefetcher.table_replacement_policy]
type=RandomRP
eventq_index=0

[system.l2.replacement_policy]
type=RandomRP
eventq_index=0

[system.l2.tags]
type=BaseSetAssoc
children=indexing_policy power_state
assoc=1
block_size=128
clk_domain=system.cpu_clk_domain
entry_size=128
eventq_index=0
indexing_policy=system.l2.tags.indexing_policy
power_model=
power_state=system.l2.tags.power_state
replacement_policy=system.l2.replacement_policy
sequential_access=false
size=524288
system=system
tag_latency=12
warmup_percentage=0

[system.l2.tags.indexing_policy]
type=SetAssociative
assoc=1
entry_size=128
eventq_index=0
size=524288

[system.l2.tags.power_state]
type=PowerState
clk_gate_bins=20
clk_gate_max=1000000000000
clk_gate_min=1000
default_state=UNDEFINED
eventq_index=0
leaders=
possible_states=

[system.mem_ctrls]
type=MemCtrl
children=dram power_state
clk_domain=system.clk_domain
command_window=10000
dram=system.mem_ctrls.dram
eventq_index=0
mem_sched_policy=frfcfs
min_writes_per_switch=16
nvm=Null
power_model=
power_state=system.mem_ctrls.power_state
qos_policy=Null
qos_priorities=1
qos_priority_escalation=false
qos_q_policy=fifo
qos_requestors=               
qos_syncro_scheduler=false
qos_turnaround_policy=Null
static_backend_latency=10000
static_frontend_latency=10000
system=system
write_high_thresh_perc=85
write_low_thresh_perc=50
port=system.membus.mem_side_ports[0]

[system.mem_ctrls.dram]
type=DRAMInterface
children=power_state
IDD0=0.07
IDD02=0.0
IDD2N=0.037
IDD2N2=0.0
IDD2P0=0.0
IDD2P02=0.0
IDD2P1=0.043000000000000003
IDD2P12=0.0
IDD3N=0.044
IDD3N2=0.0
IDD3P0=0.0
IDD3P02=0.0
IDD3P1=0.044
IDD3P12=0.0
IDD4R=0.191
IDD4R2=0.0
IDD4W=0.157
IDD4W2=0.0
IDD5=0.25
IDD52=0.0
IDD6=0.02
IDD62=0.0
VDD=1.5
VDD2=0.0
activation_limit=4
addr_mapping=RoRaBaCoCh
bank_groups_per_rank=0
banks_per_rank=8
beats_per_clock=2
burst_length=8
clk_domain=system.clk_domain
conf_table_reported=true
data_clock_sync=false
device_bus_width=8
device_rowbuffer_size=1024
device_size=536870912
devices_per_rank=8
dll=true
enable_dram_powerdown=false
eventq_index=0
image_file=
in_addr_map=true
kvm_map=true
max_accesses_per_row=16
null=false
page_policy=open_adaptive
power_model=
power_state=system.mem_ctrls.dram.power_state
range=0:17179869184
ranks_per_channel=2
read_buffer_size=32
tAAD=938
tBURST=3752
tBURST_MAX=3752
tBURST_MIN=3752
tCCD_L=0
tCCD_L_WR=0
tCK=938
tCL=13090
tCS=2500
tPPD=0
tRAS=33000
tRCD=13090
tREFI=7800000
tRFC=260000
tRP=13090
tRRD=5000
tRRD_L=0
tRTP=7500
tRTW=2500
tWR=15000
tWTR=7500
tWTR_L=7500
tXAW=25000
tXP=6000
tXPDLL=0
tXS=270000
tXSDLL=0
two_cycle_activate=false
write_buffer_size=64

[system.mem_ctrls.dram.power_state]
type=PowerState
clk_gate_bins=20
clk_gate_max=1000000000000
clk_gate_min=1000
default_state=UNDEFINED
eventq_index=0
leaders=
possible_states=

[system.mem_ctrls.power_state]
type=PowerState
clk_gate_bins=20
clk_gate_max=1000000000000
clk_gate_min=1000
default_state=UNDEFINED
eventq_index=0
leaders=
possible_states=

[system.membus]
type=CoherentXBar
children=power_state snoop_filter
clk_domain=system.clk_domain
eventq_index=0
forward_latency=4
frontend_latency=3
header_latency=1
max_outstanding_snoops=512
max_routing_table_size=512
point_of_coherency=true
point_of_unification=true
power_model=
power_state=system.membus.power_state
response_latency=2
snoop_filter=system.membus.snoop_filter
snoop_response_latency=4
system=system
use_default_range=false
width=16
cpu_side_ports=system.system_port system.l2.mem_side
mem_side_ports=system.mem_ctrls.port

[system.membus.power_state]
type=PowerState
clk_gate_bins=20
clk_gate_max=1000000000000
clk_gate_min=1000
default_state=UNDEFINED
eventq_index=0
leaders=
possible_states=

[system.membus.snoop_filter]
type=SnoopFilter
eventq_index=0
lookup_latency=1
max_capacity=8388608
system=system

[system.redirect_paths0]
type=RedirectPath
app_path=/proc
eventq_index=0
host_paths=m5out/cache_change/24/fs/proc

[system.redirect_paths1]
type=RedirectPath
app_path=/sys
eventq_index=0
host_paths=m5out/cache_change/24/fs/sys

[system.redirect_paths2]
type=RedirectPath
app_path=/tmp
eventq_index=0
host_paths=m5out/cache_change/24/fs/tmp

[system.switch_cpus]
type=DerivO3CPU
children=branchPred dtb fuPool itb power_state tracer
LFSTSize=1024
LQEntries=64
LSQCheckLoads=true
LSQDepCheckShift=0
SQEntries=60
SSITSize=1024
activity=0
backComSize=5
branchPred=system.switch_cpus.branchPred
cacheLoadPorts=200
cacheStorePorts=200
checker=Null
clk_domain=system.cpu_clk_domain
commitToDecodeDelay=1
commitToFetchDelay=1
commitToIEWDelay=1
commitToRenameDelay=1
commitWidth=4
cpu_id=0
decodeToFetchDelay=1
decodeToRenameDelay=2
decodeWidth=8
dispatchWidth=8
do_checkpoint_insts=true
do_statistics_insts=true
dtb=system.switch_cpus.dtb
eventq_index=0
fetchBufferSize=64
fetchQueueSize=32
fetchToDecodeDelay=3
fetchTrapLatency=1
fetchWidth=8
forwardComSize=5
fuPool=system.switch_cpus.fuPool
function_trace=false
function_trace_start=0
iewToCommitDelay=1
iewToDecodeDelay=1
iewToFetchDelay=1
iewToRenameDelay=1
interrupts=
isa=system.cpu.isa
issueToExecuteDelay=1
issueWidth=8
itb=system.switch_cpus.itb
max_insts_all_threads=0
max_insts_any_thread=0
needsTSO=false
numIQEntries=97
numPhysCCRegs=640
numPhysFloatRegs=192
numPhysIntRegs=128
numPhysVecPredRegs=32
numPhysVecRegs=96
numROBEntries=224
numRobs=1
numThreads=1
power_gating_on_idle=false
power_model=
power_state=system.switch_cpus.power_state
progress_interval=0
pwr_gating_latency=300
renameToDecodeDelay=1
renameToFetchDelay=1
renameToIEWDelay=1
renameToROBDelay=1
renameWidth=8
simpoint_start_insts=1000000 11000000
smtCommitPolicy=RoundRobin
smtFetchPolicy=SingleThread
smtIQPolicy=Partitioned
smtIQThreshold=100
smtLSQPolicy=Partitioned
smtLSQThreshold=100
smtNumFetchingThreads=1
smtROBPolicy=Partitioned
smtROBThreshold=100
socket_id=0
squashWidth=4
store_set_clear_period=250000
switched_out=true
syscallRetryLatency=10000
system=system
tracer=system.switch_cpus.tracer
trapLatency=13
wait_for_remote_gdb=false
wbWidth=8
workload=system.cpu.workload

[system.switch_cpus.branchPred]
type=BiModeBP
children=indirectBranchPred
BTBEntries=2048
BTBTagSize=18
RASSize=16
choiceCtrBits=2
choicePredictorSize=8192
eventq_index=0
globalCtrBits=2
globalPredictorSize=8192
indirectBranchPred=system.switch_cpus.branchPred.indirectBranchPred
instShiftAmt=2
numThreads=1

[system.switch_cpus.branchPred.indirectBranchPred]
type=SimpleIndirectPredictor
eventq_index=0
indirectGHRBits=13
indirectHashGHR=true
indirectHashTargets=true
indirectPathLength=3
indirectSets=256
indirectTagSize=16
indirectWays=2
instShiftAmt=2
numThreads=1

[system.switch_cpus.dtb]
type=ArmTLB
children=stage2_mmu walker
eventq_index=0
is_stage2=false
size=64
sys=system
walker=system.switch_cpus.dtb.walker

[system.switch_cpus.dtb.stage2_mmu]
type=ArmStage2MMU
children=stage2_tlb
eventq_index=0
stage2_tlb=system.switch_cpus.dtb.stage2_mmu.stage2_tlb
sys=system
tlb=system.switch_cpus.dtb

[system.switch_cpus.dtb.stage2_mmu.stage2_tlb]
type=ArmTLB
children=walker
eventq_index=0
is_stage2=true
size=32
sys=system
walker=system.switch_cpus.dtb.stage2_mmu.stage2_tlb.walker

[system.switch_cpus.dtb.stage2_mmu.stage2_tlb.walker]
type=ArmTableWalker
children=power_state
clk_domain=system.cpu_clk_domain
eventq_index=0
is_stage2=true
num_squash_per_cycle=2
power_model=
power_state=system.switch_cpus.dtb.stage2_mmu.stage2_tlb.walker.power_state
sys=system

[system.switch_cpus.dtb.stage2_mmu.stage2_tlb.walker.power_state]
type=PowerState
clk_gate_bins=20
clk_gate_max=1000000000000
clk_gate_min=1000
default_state=UNDEFINED
eventq_index=0
leaders=
possible_states=

[system.switch_cpus.dtb.walker]
type=ArmTableWalker
children=power_state
clk_domain=system.cpu_clk_domain
eventq_index=0
is_stage2=false
num_squash_per_cycle=2
power_model=
power_state=system.switch_cpus.dtb.walker.power_state
sys=system

[system.switch_cpus.dtb.walker.power_state]
type=PowerState
clk_gate_bins=20
clk_gate_max=1000000000000
clk_gate_min=1000
default_state=UNDEFINED
eventq_index=0
leaders=
possible_states=

[system.switch_cpus.fuPool]
type=FUPool
children=FUList0 FUList1 FUList2 FUList3 FUList4
FUList=system.switch_cpus.fuPool.FUList0 system.switch_cpus.fuPool.FUList1 system.switch_cpus.fuPool.FUList2 system.switch_cpus.fuPool.FUList3 system.switch_cpus.fuPool.FUList4
eventq_index=0

[system.switch_cpus.fuPool.FUList0]
type=FUDesc
children=opList
count=2
eventq_index=0
opList=system.switch_cpus.fuPool.FUList0.opList

[system.switch_cpus.fuPool.FUList0.opList]
type=OpDesc
eventq_index=0
opClass=IntAlu
opLat=1
pipelined=true

[system.switch_cpus.fuPool.FUList1]
type=FUDesc
children=opList0 opList1 opList2
count=1
eventq_index=0
opList=system.switch_cpus.fuPool.FUList1.opList0 system.switch_cpus.fuPool.FUList1.opList1 system.switch_cpus.fuPool.FUList1.opList2

[system.switch_cpus.fuPool.FUList1.opList0]
type=OpDesc
eventq_index=0
opClass=IntMult
opLat=3
pipelined=true

[system.switch_cpus.fuPool.FUList1.opList1]
type=OpDesc
eventq_index=0
opClass=IntDiv
opLat=12
pipelined=false

[system.switch_cpus.fuPool.FUList1.opList2]
type=OpDesc
eventq_index=0
opClass=IprAccess
opLat=3
pipelined=true

[system.switch_cpus.fuPool.FUList2]
type=FUDesc
children=opList0 opList1
count=1
eventq_index=0
opList=system.switch_cpus.fuPool.FUList2.opList0 system.switch_cpus.fuPool.FUList2.opList1

[system.switch_cpus.fuPool.FUList2.opList0]
type=OpDesc
eventq_index=0
opClass=MemRead
opLat=2
pipelined=true

[system.switch_cpus.fuPool.FUList2.opList1]
type=OpDesc
eventq_index=0
opClass=FloatMemRead
opLat=2
pipelined=true

[system.switch_cpus.fuPool.FUList3]
type=FUDesc
children=opList0 opList1
count=1
eventq_index=0
opList=system.switch_cpus.fuPool.FUList3.opList0 system.switch_cpus.fuPool.FUList3.opList1

[system.switch_cpus.fuPool.FUList3.opList0]
type=OpDesc
eventq_index=0
opClass=MemWrite
opLat=2
pipelined=true

[system.switch_cpus.fuPool.FUList3.opList1]
type=OpDesc
eventq_index=0
opClass=FloatMemWrite
opLat=2
pipelined=true

[system.switch_cpus.fuPool.FUList4]
type=FUDesc
children=opList00 opList01 opList02 opList03 opList04 opList05 opList06 opList07 opList08 opList09 opList10 opList11 opList12 opList13 opList14 opList15 opList16 opList17 opList18 opList19 opList20 opList21 opList22 opList23 opList24 opList25 opList26 opList27
count=2
eventq_index=0
opList=system.switch_cpus.fuPool.FUList4.opList00 system.switch_cpus.fuPool.FUList4.opList01 system.switch_cpus.fuPool.FUList4.opList02 system.switch_cpus.fuPool.FUList4.opList03 system.switch_cpus.fuPool.FUList4.opList04 system.switch_cpus.fuPool.FUList4.opList05 system.switch_cpus.fuPool.FUList4.opList06 system.switch_cpus.fuPool.FUList4.opList07 system.switch_cpus.fuPool.FUList4.opList08 system.switch_cpus.fuPool.FUList4.opList09 system.switch_cpus.fuPool.FUList4.opList10 system.switch_cpus.fuPool.FUList4.opList11 system.switch_cpus.fuPool.FUList4.opList12 system.switch_cpus.fuPool.FUList4.opList13 system.switch_cpus.fuPool.FUList4.opList14 system.switch_cpus.fuPool.FUList4.opList15 system.switch_cpus.fuPool.FUList4.opList16 system.switch_cpus.fuPool.FUList4.opList17 system.switch_cpus.fuPool.FUList4.opList18 system.switch_cpus.fuPool.FUList4.opList19 system.switch_cpus.fuPool.FUList4.opList20 system.switch_cpus.fuPool.FUList4.opList21 system.switch_cpus.fuPool.FUList4.opList22 system.switch_cpus.fuPool.FUList4.opList23 system.switch_cpus.fuPool.FUList4.opList24 system.switch_cpus.fuPool.FUList4.opList25 system.switch_cpus.fuPool.FUList4.opList26 system.switch_cpus.fuPool.FUList4.opList27

[system.switch_cpus.fuPool.FUList4.opList00]
type=OpDesc
eventq_index=0
opClass=SimdAdd
opLat=4
pipelined=true

[system.switch_cpus.fuPool.FUList4.opList01]
type=OpDesc
eventq_index=0
opClass=SimdAddAcc
opLat=4
pipelined=true

[system.switch_cpus.fuPool.FUList4.opList02]
type=OpDesc
eventq_index=0
opClass=SimdAlu
opLat=4
pipelined=true

[system.switch_cpus.fuPool.FUList4.opList03]
type=OpDesc
eventq_index=0
opClass=SimdCmp
opLat=4
pipelined=true

[system.switch_cpus.fuPool.FUList4.opList04]
type=OpDesc
eventq_index=0
opClass=SimdCvt
opLat=3
pipelined=true

[system.switch_cpus.fuPool.FUList4.opList05]
type=OpDesc
eventq_index=0
opClass=SimdMisc
opLat=3
pipelined=true

[system.switch_cpus.fuPool.FUList4.opList06]
type=OpDesc
eventq_index=0
opClass=SimdMult
opLat=5
pipelined=true

[system.switch_cpus.fuPool.FUList4.opList07]
type=OpDesc
eventq_index=0
opClass=SimdMultAcc
opLat=5
pipelined=true

[system.switch_cpus.fuPool.FUList4.opList08]
type=OpDesc
eventq_index=0
opClass=SimdShift
opLat=3
pipelined=true

[system.switch_cpus.fuPool.FUList4.opList09]
type=OpDesc
eventq_index=0
opClass=SimdShiftAcc
opLat=3
pipelined=true

[system.switch_cpus.fuPool.FUList4.opList10]
type=OpDesc
eventq_index=0
opClass=SimdSqrt
opLat=9
pipelined=true

[system.switch_cpus.fuPool.FUList4.opList11]
type=OpDesc
eventq_index=0
opClass=SimdFloatAdd
opLat=5
pipelined=true

[system.switch_cpus.fuPool.FUList4.opList12]
type=OpDesc
eventq_index=0
opClass=SimdFloatAlu
opLat=5
pipelined=true

[system.switch_cpus.fuPool.FUList4.opList13]
type=OpDesc
eventq_index=0
opClass=SimdFloatCmp
opLat=3
pipelined=true

[system.switch_cpus.fuPool.FUList4.opList14]
type=OpDesc
eventq_index=0
opClass=SimdFloatCvt
opLat=3
pipelined=true

[system.switch_cpus.fuPool.FUList4.opList15]
type=OpDesc
eventq_index=0
opClass=SimdFloatDiv
opLat=3
pipelined=true

[system.switch_cpus.fuPool.FUList4.opList16]
type=OpDesc
eventq_index=0
opClass=SimdFloatMisc
opLat=3
pipelined=true

[system.switch_cpus.fuPool.FUList4.opList17]
type=OpDesc
eventq_index=0
opClass=SimdFloatMult
opLat=3
pipelined=true

[system.switch_cpus.fuPool.FUList4.opList18]
type=OpDesc
eventq_index=0
opClass=SimdFloatMultAcc
opLat=5
pipelined=true

[system.switch_cpus.fuPool.FUList4.opList19]
type=OpDesc
eventq_index=0
opClass=SimdFloatSqrt
opLat=9
pipelined=true

[system.switch_cpus.fuPool.FUList4.opList20]
type=OpDesc
eventq_index=0
opClass=FloatAdd
opLat=5
pipelined=true

[system.switch_cpus.fuPool.FUList4.opList21]
type=OpDesc
eventq_index=0
opClass=FloatCmp
opLat=5
pipelined=true

[system.switch_cpus.fuPool.FUList4.opList22]
type=OpDesc
eventq_index=0
opClass=FloatCvt
opLat=5
pipelined=true

[system.switch_cpus.fuPool.FUList4.opList23]
type=OpDesc
eventq_index=0
opClass=FloatDiv
opLat=9
pipelined=false

[system.switch_cpus.fuPool.FUList4.opList24]
type=OpDesc
eventq_index=0
opClass=FloatSqrt
opLat=33
pipelined=false

[system.switch_cpus.fuPool.FUList4.opList25]
type=OpDesc
eventq_index=0
opClass=FloatMult
opLat=4
pipelined=true

[system.switch_cpus.fuPool.FUList4.opList26]
type=OpDesc
eventq_index=0
opClass=FloatMultAcc
opLat=5
pipelined=true

[system.switch_cpus.fuPool.FUList4.opList27]